/*--------------------------------*- C++ -*----------------------------------*\
  =========                 |
  \\      /  F ield         | OpenFOAM: The Open Source CFD Toolbox
   \\    /   O peration     | Website:  https://openfoam.org
    \\  /    A nd           | Version:  8
     \\/     M anipulation  |
\*---------------------------------------------------------------------------*/
FoamFile
{
    version     2.0;
    format      ascii;
    class       polyBoundaryMesh;
    location    "0.001/polyMesh";
    object      boundary;
}
// * * * * * * * * * * * * * * * * * * * * * * * * * * * * * * * * * * * * * //

7
(
    inlet
    {
        type            patch;
        nFaces          1900;
        startFace       622987;
    }
    outlet
    {
        type            patch;
        nFaces          1900;
        startFace       624887;
    }
    bottom
    {
        type            patch;
        nFaces          10000;
        startFace       626787;
    }
    wall1
    {
        type            patch;
        nFaces          1900;
        startFace       636787;
    }
    wall2
    {
        type            patch;
        nFaces          1900;
        startFace       638687;
    }
    atmosphere
    {
        type            patch;
        nFaces          10000;
        startFace       640587;
    }
    wall3
    {
        type            wall;
        nFaces          11354;
        startFace       650587;
    }
)

// ************************************************************************* //
